Version 4
SHEET 1 1656 680
WIRE 320 -48 0 -48
WIRE 320 0 320 -48
WIRE 0 48 0 -48
WIRE 0 224 0 128
WIRE 320 224 320 64
WIRE 320 224 0 224
WIRE 0 256 0 224
FLAG 0 256 0
SYMBOL memristor 336 64 R0
SYMATTR InstName m
SYMBOL Misc\\signal 0 32 R0
WINDOW 3 24 44 Left 2
WINDOW 123 0 0 Left 2
WINDOW 39 0 0 Left 2
SYMATTR InstName V2
SYMATTR Value PWL REPEAT FOREVER(0 0 0.25 2 0.5 0 0.75 -2 1 0) ENDREPEAT
TEXT -144 248 Left 2 !.tran 0 2 0 1e-5
TEXT 472 208 Left 2 !.param T 1
TEXT 472 168 Left 2 !.param amp 3
TEXT 424 72 Left 2 !.inc memristor_non_linear_soft_switching.sub
